*SPEF "IEEE 1481-1999"
*DESIGN "ibex_core"
*DATE "Wed Feb 28 15:41:57 2024"
*VENDOR "SYNOPSYS INC"
*PROGRAM "Synopsys Design Compiler cmos"
*VERSION "U-2022.12"
*DESIGN_FLOW "SYNTHESIS"
*DIVIDER /
*DELIMITER :
*BUS_DELIMITER []
*T_UNIT 1.0 NS
*C_UNIT 0.0010 PF
*R_UNIT 1000.0 KOHM
*L_UNIT 1.0 HENRY

*PORTS

clk_i I *L 0.000e+00 *S 0.000e+00 0.000e+00 
rst_ni I *L 0.000e+00 *S 0.000e+00 0.000e+00 
hart_id_i\[31\] I *L 0.000e+00 *S 0.000e+00 0.000e+00 
hart_id_i\[30\] I *L 0.000e+00 *S 0.000e+00 0.000e+00 
hart_id_i\[29\] I *L 0.000e+00 *S 0.000e+00 0.000e+00 
hart_id_i\[28\] I *L 0.000e+00 *S 0.000e+00 0.000e+00 
hart_id_i\[27\] I *L 0.000e+00 *S 0.000e+00 0.000e+00 
hart_id_i\[26\] I *L 0.000e+00 *S 0.000e+00 0.000e+00 
hart_id_i\[25\] I *L 0.000e+00 *S 0.000e+00 0.000e+00 
hart_id_i\[24\] I *L 0.000e+00 *S 0.000e+00 0.000e+00 
hart_id_i\[23\] I *L 0.000e+00 *S 0.000e+00 0.000e+00 
hart_id_i\[22\] I *L 0.000e+00 *S 0.000e+00 0.000e+00 
hart_id_i\[21\] I *L 0.000e+00 *S 0.000e+00 0.000e+00 
hart_id_i\[20\] I *L 0.000e+00 *S 0.000e+00 0.000e+00 
hart_id_i\[19\] I *L 0.000e+00 *S 0.000e+00 0.000e+00 
hart_id_i\[18\] I *L 0.000e+00 *S 0.000e+00 0.000e+00 
hart_id_i\[17\] I *L 0.000e+00 *S 0.000e+00 0.000e+00 
hart_id_i\[16\] I *L 0.000e+00 *S 0.000e+00 0.000e+00 
hart_id_i\[15\] I *L 0.000e+00 *S 0.000e+00 0.000e+00 
hart_id_i\[14\] I *L 0.000e+00 *S 0.000e+00 0.000e+00 
hart_id_i\[13\] I *L 0.000e+00 *S 0.000e+00 0.000e+00 
hart_id_i\[12\] I *L 0.000e+00 *S 0.000e+00 0.000e+00 
hart_id_i\[11\] I *L 0.000e+00 *S 0.000e+00 0.000e+00 
hart_id_i\[10\] I *L 0.000e+00 *S 0.000e+00 0.000e+00 
hart_id_i\[9\] I *L 0.000e+00 *S 0.000e+00 0.000e+00 
hart_id_i\[8\] I *L 0.000e+00 *S 0.000e+00 0.000e+00 
hart_id_i\[7\] I *L 0.000e+00 *S 0.000e+00 0.000e+00 
hart_id_i\[6\] I *L 0.000e+00 *S 0.000e+00 0.000e+00 
hart_id_i\[5\] I *L 0.000e+00 *S 0.000e+00 0.000e+00 
hart_id_i\[4\] I *L 0.000e+00 *S 0.000e+00 0.000e+00 
hart_id_i\[3\] I *L 0.000e+00 *S 0.000e+00 0.000e+00 
hart_id_i\[2\] I *L 0.000e+00 *S 0.000e+00 0.000e+00 
hart_id_i\[1\] I *L 0.000e+00 *S 0.000e+00 0.000e+00 
hart_id_i\[0\] I *L 0.000e+00 *S 0.000e+00 0.000e+00 
boot_addr_i\[31\] I *L 0.000e+00 *S 0.000e+00 0.000e+00 
boot_addr_i\[30\] I *L 0.000e+00 *S 0.000e+00 0.000e+00 
boot_addr_i\[29\] I *L 0.000e+00 *S 0.000e+00 0.000e+00 
boot_addr_i\[28\] I *L 0.000e+00 *S 0.000e+00 0.000e+00 
boot_addr_i\[27\] I *L 0.000e+00 *S 0.000e+00 0.000e+00 
boot_addr_i\[26\] I *L 0.000e+00 *S 0.000e+00 0.000e+00 
boot_addr_i\[25\] I *L 0.000e+00 *S 0.000e+00 0.000e+00 
boot_addr_i\[24\] I *L 0.000e+00 *S 0.000e+00 0.000e+00 
boot_addr_i\[23\] I *L 0.000e+00 *S 0.000e+00 0.000e+00 
boot_addr_i\[22\] I *L 0.000e+00 *S 0.000e+00 0.000e+00 
boot_addr_i\[21\] I *L 0.000e+00 *S 0.000e+00 0.000e+00 
boot_addr_i\[20\] I *L 0.000e+00 *S 0.000e+00 0.000e+00 
boot_addr_i\[19\] I *L 0.000e+00 *S 0.000e+00 0.000e+00 
boot_addr_i\[18\] I *L 0.000e+00 *S 0.000e+00 0.000e+00 
boot_addr_i\[17\] I *L 0.000e+00 *S 0.000e+00 0.000e+00 
boot_addr_i\[16\] I *L 0.000e+00 *S 0.000e+00 0.000e+00 
boot_addr_i\[15\] I *L 0.000e+00 *S 0.000e+00 0.000e+00 
boot_addr_i\[14\] I *L 0.000e+00 *S 0.000e+00 0.000e+00 
boot_addr_i\[13\] I *L 0.000e+00 *S 0.000e+00 0.000e+00 
boot_addr_i\[12\] I *L 0.000e+00 *S 0.000e+00 0.000e+00 
boot_addr_i\[11\] I *L 0.000e+00 *S 0.000e+00 0.000e+00 
boot_addr_i\[10\] I *L 0.000e+00 *S 0.000e+00 0.000e+00 
boot_addr_i\[9\] I *L 0.000e+00 *S 0.000e+00 0.000e+00 
boot_addr_i\[8\] I *L 0.000e+00 *S 0.000e+00 0.000e+00 
boot_addr_i\[7\] I *L 0.000e+00 *S 0.000e+00 0.000e+00 
boot_addr_i\[6\] I *L 0.000e+00 *S 0.000e+00 0.000e+00 
boot_addr_i\[5\] I *L 0.000e+00 *S 0.000e+00 0.000e+00 
boot_addr_i\[4\] I *L 0.000e+00 *S 0.000e+00 0.000e+00 
boot_addr_i\[3\] I *L 0.000e+00 *S 0.000e+00 0.000e+00 
boot_addr_i\[2\] I *L 0.000e+00 *S 0.000e+00 0.000e+00 
boot_addr_i\[1\] I *L 0.000e+00 *S 0.000e+00 0.000e+00 
boot_addr_i\[0\] I *L 0.000e+00 *S 0.000e+00 0.000e+00 
instr_req_o O *L 0.000e+00 *S 1.118e-02 8.447e-03 
instr_gnt_i I *L 0.000e+00 *S 0.000e+00 0.000e+00 
instr_rvalid_i I *L 0.000e+00 *S 0.000e+00 0.000e+00 
instr_addr_o\[31\] O *L 0.000e+00 *S 2.115e-03 1.386e-03 
instr_addr_o\[30\] O *L 0.000e+00 *S 2.115e-03 1.386e-03 
instr_addr_o\[29\] O *L 0.000e+00 *S 2.115e-03 1.386e-03 
instr_addr_o\[28\] O *L 0.000e+00 *S 2.115e-03 1.386e-03 
instr_addr_o\[27\] O *L 0.000e+00 *S 2.115e-03 1.386e-03 
instr_addr_o\[26\] O *L 0.000e+00 *S 2.115e-03 1.386e-03 
instr_addr_o\[25\] O *L 0.000e+00 *S 2.115e-03 1.386e-03 
instr_addr_o\[24\] O *L 0.000e+00 *S 2.115e-03 1.386e-03 
instr_addr_o\[23\] O *L 0.000e+00 *S 2.115e-03 1.386e-03 
instr_addr_o\[22\] O *L 0.000e+00 *S 2.115e-03 1.386e-03 
instr_addr_o\[21\] O *L 0.000e+00 *S 2.115e-03 1.386e-03 
instr_addr_o\[20\] O *L 0.000e+00 *S 2.115e-03 1.386e-03 
instr_addr_o\[19\] O *L 0.000e+00 *S 2.115e-03 1.386e-03 
instr_addr_o\[18\] O *L 0.000e+00 *S 2.115e-03 1.386e-03 
instr_addr_o\[17\] O *L 0.000e+00 *S 2.115e-03 1.386e-03 
instr_addr_o\[16\] O *L 0.000e+00 *S 2.115e-03 1.386e-03 
instr_addr_o\[15\] O *L 0.000e+00 *S 2.115e-03 1.386e-03 
instr_addr_o\[14\] O *L 0.000e+00 *S 2.115e-03 1.386e-03 
instr_addr_o\[13\] O *L 0.000e+00 *S 2.115e-03 1.386e-03 
instr_addr_o\[12\] O *L 0.000e+00 *S 2.115e-03 1.386e-03 
instr_addr_o\[11\] O *L 0.000e+00 *S 2.115e-03 1.386e-03 
instr_addr_o\[10\] O *L 0.000e+00 *S 2.115e-03 1.386e-03 
instr_addr_o\[9\] O *L 0.000e+00 *S 2.115e-03 1.386e-03 
instr_addr_o\[8\] O *L 0.000e+00 *S 2.115e-03 1.386e-03 
instr_addr_o\[7\] O *L 0.000e+00 *S 2.115e-03 1.386e-03 
instr_addr_o\[6\] O *L 0.000e+00 *S 2.115e-03 1.386e-03 
instr_addr_o\[5\] O *L 0.000e+00 *S 2.115e-03 1.386e-03 
instr_addr_o\[4\] O *L 0.000e+00 *S 2.115e-03 1.386e-03 
instr_addr_o\[3\] O *L 0.000e+00 *S 2.115e-03 1.386e-03 
instr_addr_o\[2\] O *L 0.000e+00 *S 2.115e-03 1.386e-03 
instr_addr_o\[1\] O *L 0.000e+00 *S 1.526e-03 1.159e-03 
instr_addr_o\[0\] O *L 0.000e+00 *S 1.526e-03 1.159e-03 
instr_rdata_i\[31\] I *L 0.000e+00 *S 0.000e+00 0.000e+00 
instr_rdata_i\[30\] I *L 0.000e+00 *S 0.000e+00 0.000e+00 
instr_rdata_i\[29\] I *L 0.000e+00 *S 0.000e+00 0.000e+00 
instr_rdata_i\[28\] I *L 0.000e+00 *S 0.000e+00 0.000e+00 
instr_rdata_i\[27\] I *L 0.000e+00 *S 0.000e+00 0.000e+00 
instr_rdata_i\[26\] I *L 0.000e+00 *S 0.000e+00 0.000e+00 
instr_rdata_i\[25\] I *L 0.000e+00 *S 0.000e+00 0.000e+00 
instr_rdata_i\[24\] I *L 0.000e+00 *S 0.000e+00 0.000e+00 
instr_rdata_i\[23\] I *L 0.000e+00 *S 0.000e+00 0.000e+00 
instr_rdata_i\[22\] I *L 0.000e+00 *S 0.000e+00 0.000e+00 
instr_rdata_i\[21\] I *L 0.000e+00 *S 0.000e+00 0.000e+00 
instr_rdata_i\[20\] I *L 0.000e+00 *S 0.000e+00 0.000e+00 
instr_rdata_i\[19\] I *L 0.000e+00 *S 0.000e+00 0.000e+00 
instr_rdata_i\[18\] I *L 0.000e+00 *S 0.000e+00 0.000e+00 
instr_rdata_i\[17\] I *L 0.000e+00 *S 0.000e+00 0.000e+00 
instr_rdata_i\[16\] I *L 0.000e+00 *S 0.000e+00 0.000e+00 
instr_rdata_i\[15\] I *L 0.000e+00 *S 0.000e+00 0.000e+00 
instr_rdata_i\[14\] I *L 0.000e+00 *S 0.000e+00 0.000e+00 
instr_rdata_i\[13\] I *L 0.000e+00 *S 0.000e+00 0.000e+00 
instr_rdata_i\[12\] I *L 0.000e+00 *S 0.000e+00 0.000e+00 
instr_rdata_i\[11\] I *L 0.000e+00 *S 0.000e+00 0.000e+00 
instr_rdata_i\[10\] I *L 0.000e+00 *S 0.000e+00 0.000e+00 
instr_rdata_i\[9\] I *L 0.000e+00 *S 0.000e+00 0.000e+00 
instr_rdata_i\[8\] I *L 0.000e+00 *S 0.000e+00 0.000e+00 
instr_rdata_i\[7\] I *L 0.000e+00 *S 0.000e+00 0.000e+00 
instr_rdata_i\[6\] I *L 0.000e+00 *S 0.000e+00 0.000e+00 
instr_rdata_i\[5\] I *L 0.000e+00 *S 0.000e+00 0.000e+00 
instr_rdata_i\[4\] I *L 0.000e+00 *S 0.000e+00 0.000e+00 
instr_rdata_i\[3\] I *L 0.000e+00 *S 0.000e+00 0.000e+00 
instr_rdata_i\[2\] I *L 0.000e+00 *S 0.000e+00 0.000e+00 
instr_rdata_i\[1\] I *L 0.000e+00 *S 0.000e+00 0.000e+00 
instr_rdata_i\[0\] I *L 0.000e+00 *S 0.000e+00 0.000e+00 
instr_err_i I *L 0.000e+00 *S 0.000e+00 0.000e+00 
data_req_o O *L 0.000e+00 *S 2.012e-03 1.521e-03 
data_gnt_i I *L 0.000e+00 *S 0.000e+00 0.000e+00 
data_rvalid_i I *L 0.000e+00 *S 0.000e+00 0.000e+00 
data_we_o O *L 0.000e+00 *S 1.114e-03 1.164e-03 
data_be_o\[3\] O *L 0.000e+00 *S 2.115e-03 1.386e-03 
data_be_o\[2\] O *L 0.000e+00 *S 2.115e-03 1.386e-03 
data_be_o\[1\] O *L 0.000e+00 *S 2.115e-03 1.386e-03 
data_be_o\[0\] O *L 0.000e+00 *S 2.080e-03 1.392e-03 
data_addr_o\[31\] O *L 0.000e+00 *S 1.114e-03 1.164e-03 
data_addr_o\[30\] O *L 0.000e+00 *S 1.114e-03 1.164e-03 
data_addr_o\[29\] O *L 0.000e+00 *S 1.114e-03 1.164e-03 
data_addr_o\[28\] O *L 0.000e+00 *S 1.114e-03 1.164e-03 
data_addr_o\[27\] O *L 0.000e+00 *S 1.114e-03 1.164e-03 
data_addr_o\[26\] O *L 0.000e+00 *S 1.114e-03 1.164e-03 
data_addr_o\[25\] O *L 0.000e+00 *S 1.114e-03 1.164e-03 
data_addr_o\[24\] O *L 0.000e+00 *S 1.114e-03 1.164e-03 
data_addr_o\[23\] O *L 0.000e+00 *S 1.114e-03 1.164e-03 
data_addr_o\[22\] O *L 0.000e+00 *S 1.114e-03 1.164e-03 
data_addr_o\[21\] O *L 0.000e+00 *S 1.114e-03 1.164e-03 
data_addr_o\[20\] O *L 0.000e+00 *S 1.114e-03 1.164e-03 
data_addr_o\[19\] O *L 0.000e+00 *S 1.114e-03 1.164e-03 
data_addr_o\[18\] O *L 0.000e+00 *S 1.114e-03 1.164e-03 
data_addr_o\[17\] O *L 0.000e+00 *S 1.114e-03 1.164e-03 
data_addr_o\[16\] O *L 0.000e+00 *S 1.114e-03 1.164e-03 
data_addr_o\[15\] O *L 0.000e+00 *S 1.114e-03 1.164e-03 
data_addr_o\[14\] O *L 0.000e+00 *S 1.114e-03 1.164e-03 
data_addr_o\[13\] O *L 0.000e+00 *S 1.114e-03 1.164e-03 
data_addr_o\[12\] O *L 0.000e+00 *S 1.114e-03 1.164e-03 
data_addr_o\[11\] O *L 0.000e+00 *S 1.114e-03 1.164e-03 
data_addr_o\[10\] O *L 0.000e+00 *S 1.114e-03 1.164e-03 
data_addr_o\[9\] O *L 0.000e+00 *S 1.114e-03 1.164e-03 
data_addr_o\[8\] O *L 0.000e+00 *S 1.114e-03 1.164e-03 
data_addr_o\[7\] O *L 0.000e+00 *S 1.114e-03 1.164e-03 
data_addr_o\[6\] O *L 0.000e+00 *S 1.114e-03 1.164e-03 
data_addr_o\[5\] O *L 0.000e+00 *S 1.114e-03 1.164e-03 
data_addr_o\[4\] O *L 0.000e+00 *S 1.114e-03 1.164e-03 
data_addr_o\[3\] O *L 0.000e+00 *S 1.114e-03 1.164e-03 
data_addr_o\[2\] O *L 0.000e+00 *S 1.114e-03 1.164e-03 
data_addr_o\[1\] O *L 0.000e+00 *S 1.526e-03 1.159e-03 
data_addr_o\[0\] O *L 0.000e+00 *S 1.526e-03 1.159e-03 
data_wdata_o\[31\] O *L 0.000e+00 *S 1.415e-03 1.323e-03 
data_wdata_o\[30\] O *L 0.000e+00 *S 1.415e-03 1.323e-03 
data_wdata_o\[29\] O *L 0.000e+00 *S 1.415e-03 1.323e-03 
data_wdata_o\[28\] O *L 0.000e+00 *S 1.415e-03 1.323e-03 
data_wdata_o\[27\] O *L 0.000e+00 *S 1.415e-03 1.323e-03 
data_wdata_o\[26\] O *L 0.000e+00 *S 1.415e-03 1.323e-03 
data_wdata_o\[25\] O *L 0.000e+00 *S 1.415e-03 1.323e-03 
data_wdata_o\[24\] O *L 0.000e+00 *S 1.415e-03 1.323e-03 
data_wdata_o\[23\] O *L 0.000e+00 *S 1.415e-03 1.323e-03 
data_wdata_o\[22\] O *L 0.000e+00 *S 1.415e-03 1.323e-03 
data_wdata_o\[21\] O *L 0.000e+00 *S 1.415e-03 1.323e-03 
data_wdata_o\[20\] O *L 0.000e+00 *S 1.415e-03 1.323e-03 
data_wdata_o\[19\] O *L 0.000e+00 *S 1.415e-03 1.323e-03 
data_wdata_o\[18\] O *L 0.000e+00 *S 1.415e-03 1.323e-03 
data_wdata_o\[17\] O *L 0.000e+00 *S 1.415e-03 1.323e-03 
data_wdata_o\[16\] O *L 0.000e+00 *S 1.415e-03 1.323e-03 
data_wdata_o\[15\] O *L 0.000e+00 *S 1.415e-03 1.323e-03 
data_wdata_o\[14\] O *L 0.000e+00 *S 1.415e-03 1.323e-03 
data_wdata_o\[13\] O *L 0.000e+00 *S 1.415e-03 1.323e-03 
data_wdata_o\[12\] O *L 0.000e+00 *S 1.415e-03 1.323e-03 
data_wdata_o\[11\] O *L 0.000e+00 *S 1.415e-03 1.323e-03 
data_wdata_o\[10\] O *L 0.000e+00 *S 1.415e-03 1.323e-03 
data_wdata_o\[9\] O *L 0.000e+00 *S 1.415e-03 1.323e-03 
data_wdata_o\[8\] O *L 0.000e+00 *S 1.415e-03 1.323e-03 
data_wdata_o\[7\] O *L 0.000e+00 *S 1.415e-03 1.323e-03 
data_wdata_o\[6\] O *L 0.000e+00 *S 1.415e-03 1.323e-03 
data_wdata_o\[5\] O *L 0.000e+00 *S 1.415e-03 1.323e-03 
data_wdata_o\[4\] O *L 0.000e+00 *S 1.415e-03 1.323e-03 
data_wdata_o\[3\] O *L 0.000e+00 *S 1.415e-03 1.323e-03 
data_wdata_o\[2\] O *L 0.000e+00 *S 1.415e-03 1.323e-03 
data_wdata_o\[1\] O *L 0.000e+00 *S 1.415e-03 1.323e-03 
data_wdata_o\[0\] O *L 0.000e+00 *S 1.415e-03 1.323e-03 
data_rdata_i\[31\] I *L 0.000e+00 *S 0.000e+00 0.000e+00 
data_rdata_i\[30\] I *L 0.000e+00 *S 0.000e+00 0.000e+00 
data_rdata_i\[29\] I *L 0.000e+00 *S 0.000e+00 0.000e+00 
data_rdata_i\[28\] I *L 0.000e+00 *S 0.000e+00 0.000e+00 
data_rdata_i\[27\] I *L 0.000e+00 *S 0.000e+00 0.000e+00 
data_rdata_i\[26\] I *L 0.000e+00 *S 0.000e+00 0.000e+00 
data_rdata_i\[25\] I *L 0.000e+00 *S 0.000e+00 0.000e+00 
data_rdata_i\[24\] I *L 0.000e+00 *S 0.000e+00 0.000e+00 
data_rdata_i\[23\] I *L 0.000e+00 *S 0.000e+00 0.000e+00 
data_rdata_i\[22\] I *L 0.000e+00 *S 0.000e+00 0.000e+00 
data_rdata_i\[21\] I *L 0.000e+00 *S 0.000e+00 0.000e+00 
data_rdata_i\[20\] I *L 0.000e+00 *S 0.000e+00 0.000e+00 
data_rdata_i\[19\] I *L 0.000e+00 *S 0.000e+00 0.000e+00 
data_rdata_i\[18\] I *L 0.000e+00 *S 0.000e+00 0.000e+00 
data_rdata_i\[17\] I *L 0.000e+00 *S 0.000e+00 0.000e+00 
data_rdata_i\[16\] I *L 0.000e+00 *S 0.000e+00 0.000e+00 
data_rdata_i\[15\] I *L 0.000e+00 *S 0.000e+00 0.000e+00 
data_rdata_i\[14\] I *L 0.000e+00 *S 0.000e+00 0.000e+00 
data_rdata_i\[13\] I *L 0.000e+00 *S 0.000e+00 0.000e+00 
data_rdata_i\[12\] I *L 0.000e+00 *S 0.000e+00 0.000e+00 
data_rdata_i\[11\] I *L 0.000e+00 *S 0.000e+00 0.000e+00 
data_rdata_i\[10\] I *L 0.000e+00 *S 0.000e+00 0.000e+00 
data_rdata_i\[9\] I *L 0.000e+00 *S 0.000e+00 0.000e+00 
data_rdata_i\[8\] I *L 0.000e+00 *S 0.000e+00 0.000e+00 
data_rdata_i\[7\] I *L 0.000e+00 *S 0.000e+00 0.000e+00 
data_rdata_i\[6\] I *L 0.000e+00 *S 0.000e+00 0.000e+00 
data_rdata_i\[5\] I *L 0.000e+00 *S 0.000e+00 0.000e+00 
data_rdata_i\[4\] I *L 0.000e+00 *S 0.000e+00 0.000e+00 
data_rdata_i\[3\] I *L 0.000e+00 *S 0.000e+00 0.000e+00 
data_rdata_i\[2\] I *L 0.000e+00 *S 0.000e+00 0.000e+00 
data_rdata_i\[1\] I *L 0.000e+00 *S 0.000e+00 0.000e+00 
data_rdata_i\[0\] I *L 0.000e+00 *S 0.000e+00 0.000e+00 
data_err_i I *L 0.000e+00 *S 0.000e+00 0.000e+00 
dummy_instr_id_o O *L 0.000e+00 *S 1.526e-03 1.159e-03 
dummy_instr_wb_o O *L 0.000e+00 *S 1.526e-03 1.159e-03 
rf_raddr_a_o\[4\] O *L 0.000e+00 *S 1.526e-03 1.159e-03 
rf_raddr_a_o\[3\] O *L 0.000e+00 *S 1.526e-03 1.159e-03 
rf_raddr_a_o\[2\] O *L 0.000e+00 *S 1.526e-03 1.159e-03 
rf_raddr_a_o\[1\] O *L 0.000e+00 *S 1.526e-03 1.159e-03 
rf_raddr_a_o\[0\] O *L 0.000e+00 *S 1.114e-03 1.164e-03 
rf_raddr_b_o\[4\] O *L 0.000e+00 *S 1.526e-03 1.159e-03 
rf_raddr_b_o\[3\] O *L 0.000e+00 *S 1.526e-03 1.159e-03 
rf_raddr_b_o\[2\] O *L 0.000e+00 *S 1.114e-03 1.164e-03 
rf_raddr_b_o\[1\] O *L 0.000e+00 *S 1.114e-03 1.164e-03 
rf_raddr_b_o\[0\] O *L 0.000e+00 *S 1.114e-03 1.164e-03 
rf_waddr_wb_o\[4\] O *L 0.000e+00 *S 1.114e-03 1.164e-03 
rf_waddr_wb_o\[3\] O *L 0.000e+00 *S 1.114e-03 1.164e-03 
rf_waddr_wb_o\[2\] O *L 0.000e+00 *S 1.114e-03 1.164e-03 
rf_waddr_wb_o\[1\] O *L 0.000e+00 *S 1.114e-03 1.164e-03 
rf_waddr_wb_o\[0\] O *L 0.000e+00 *S 1.114e-03 1.164e-03 
rf_we_wb_o O *L 0.000e+00 *S 9.265e-04 8.924e-04 
rf_wdata_wb_ecc_o\[31\] O *L 0.000e+00 *S 1.526e-03 1.159e-03 
rf_wdata_wb_ecc_o\[30\] O *L 0.000e+00 *S 1.526e-03 1.159e-03 
rf_wdata_wb_ecc_o\[29\] O *L 0.000e+00 *S 1.526e-03 1.159e-03 
rf_wdata_wb_ecc_o\[28\] O *L 0.000e+00 *S 1.526e-03 1.159e-03 
rf_wdata_wb_ecc_o\[27\] O *L 0.000e+00 *S 1.526e-03 1.159e-03 
rf_wdata_wb_ecc_o\[26\] O *L 0.000e+00 *S 1.526e-03 1.159e-03 
rf_wdata_wb_ecc_o\[25\] O *L 0.000e+00 *S 1.526e-03 1.159e-03 
rf_wdata_wb_ecc_o\[24\] O *L 0.000e+00 *S 1.526e-03 1.159e-03 
rf_wdata_wb_ecc_o\[23\] O *L 0.000e+00 *S 1.526e-03 1.159e-03 
rf_wdata_wb_ecc_o\[22\] O *L 0.000e+00 *S 1.526e-03 1.159e-03 
rf_wdata_wb_ecc_o\[21\] O *L 0.000e+00 *S 1.526e-03 1.159e-03 
rf_wdata_wb_ecc_o\[20\] O *L 0.000e+00 *S 1.526e-03 1.159e-03 
rf_wdata_wb_ecc_o\[19\] O *L 0.000e+00 *S 1.526e-03 1.159e-03 
rf_wdata_wb_ecc_o\[18\] O *L 0.000e+00 *S 1.526e-03 1.159e-03 
rf_wdata_wb_ecc_o\[17\] O *L 0.000e+00 *S 1.526e-03 1.159e-03 
rf_wdata_wb_ecc_o\[16\] O *L 0.000e+00 *S 1.526e-03 1.159e-03 
rf_wdata_wb_ecc_o\[15\] O *L 0.000e+00 *S 1.526e-03 1.159e-03 
rf_wdata_wb_ecc_o\[14\] O *L 0.000e+00 *S 1.526e-03 1.159e-03 
rf_wdata_wb_ecc_o\[13\] O *L 0.000e+00 *S 1.526e-03 1.159e-03 
rf_wdata_wb_ecc_o\[12\] O *L 0.000e+00 *S 1.526e-03 1.159e-03 
rf_wdata_wb_ecc_o\[11\] O *L 0.000e+00 *S 1.526e-03 1.159e-03 
rf_wdata_wb_ecc_o\[10\] O *L 0.000e+00 *S 1.526e-03 1.159e-03 
rf_wdata_wb_ecc_o\[9\] O *L 0.000e+00 *S 1.526e-03 1.159e-03 
rf_wdata_wb_ecc_o\[8\] O *L 0.000e+00 *S 1.526e-03 1.159e-03 
rf_wdata_wb_ecc_o\[7\] O *L 0.000e+00 *S 1.526e-03 1.159e-03 
rf_wdata_wb_ecc_o\[6\] O *L 0.000e+00 *S 1.526e-03 1.159e-03 
rf_wdata_wb_ecc_o\[5\] O *L 0.000e+00 *S 1.526e-03 1.159e-03 
rf_wdata_wb_ecc_o\[4\] O *L 0.000e+00 *S 1.526e-03 1.159e-03 
rf_wdata_wb_ecc_o\[3\] O *L 0.000e+00 *S 1.526e-03 1.159e-03 
rf_wdata_wb_ecc_o\[2\] O *L 0.000e+00 *S 1.526e-03 1.159e-03 
rf_wdata_wb_ecc_o\[1\] O *L 0.000e+00 *S 1.526e-03 1.159e-03 
rf_wdata_wb_ecc_o\[0\] O *L 0.000e+00 *S 1.526e-03 1.159e-03 
rf_rdata_a_ecc_i\[31\] I *L 0.000e+00 *S 0.000e+00 0.000e+00 
rf_rdata_a_ecc_i\[30\] I *L 0.000e+00 *S 0.000e+00 0.000e+00 
rf_rdata_a_ecc_i\[29\] I *L 0.000e+00 *S 0.000e+00 0.000e+00 
rf_rdata_a_ecc_i\[28\] I *L 0.000e+00 *S 0.000e+00 0.000e+00 
rf_rdata_a_ecc_i\[27\] I *L 0.000e+00 *S 0.000e+00 0.000e+00 
rf_rdata_a_ecc_i\[26\] I *L 0.000e+00 *S 0.000e+00 0.000e+00 
rf_rdata_a_ecc_i\[25\] I *L 0.000e+00 *S 0.000e+00 0.000e+00 
rf_rdata_a_ecc_i\[24\] I *L 0.000e+00 *S 0.000e+00 0.000e+00 
rf_rdata_a_ecc_i\[23\] I *L 0.000e+00 *S 0.000e+00 0.000e+00 
rf_rdata_a_ecc_i\[22\] I *L 0.000e+00 *S 0.000e+00 0.000e+00 
rf_rdata_a_ecc_i\[21\] I *L 0.000e+00 *S 0.000e+00 0.000e+00 
rf_rdata_a_ecc_i\[20\] I *L 0.000e+00 *S 0.000e+00 0.000e+00 
rf_rdata_a_ecc_i\[19\] I *L 0.000e+00 *S 0.000e+00 0.000e+00 
rf_rdata_a_ecc_i\[18\] I *L 0.000e+00 *S 0.000e+00 0.000e+00 
rf_rdata_a_ecc_i\[17\] I *L 0.000e+00 *S 0.000e+00 0.000e+00 
rf_rdata_a_ecc_i\[16\] I *L 0.000e+00 *S 0.000e+00 0.000e+00 
rf_rdata_a_ecc_i\[15\] I *L 0.000e+00 *S 0.000e+00 0.000e+00 
rf_rdata_a_ecc_i\[14\] I *L 0.000e+00 *S 0.000e+00 0.000e+00 
rf_rdata_a_ecc_i\[13\] I *L 0.000e+00 *S 0.000e+00 0.000e+00 
rf_rdata_a_ecc_i\[12\] I *L 0.000e+00 *S 0.000e+00 0.000e+00 
rf_rdata_a_ecc_i\[11\] I *L 0.000e+00 *S 0.000e+00 0.000e+00 
rf_rdata_a_ecc_i\[10\] I *L 0.000e+00 *S 0.000e+00 0.000e+00 
rf_rdata_a_ecc_i\[9\] I *L 0.000e+00 *S 0.000e+00 0.000e+00 
rf_rdata_a_ecc_i\[8\] I *L 0.000e+00 *S 0.000e+00 0.000e+00 
rf_rdata_a_ecc_i\[7\] I *L 0.000e+00 *S 0.000e+00 0.000e+00 
rf_rdata_a_ecc_i\[6\] I *L 0.000e+00 *S 0.000e+00 0.000e+00 
rf_rdata_a_ecc_i\[5\] I *L 0.000e+00 *S 0.000e+00 0.000e+00 
rf_rdata_a_ecc_i\[4\] I *L 0.000e+00 *S 0.000e+00 0.000e+00 
rf_rdata_a_ecc_i\[3\] I *L 0.000e+00 *S 0.000e+00 0.000e+00 
rf_rdata_a_ecc_i\[2\] I *L 0.000e+00 *S 0.000e+00 0.000e+00 
rf_rdata_a_ecc_i\[1\] I *L 0.000e+00 *S 0.000e+00 0.000e+00 
rf_rdata_a_ecc_i\[0\] I *L 0.000e+00 *S 0.000e+00 0.000e+00 
rf_rdata_b_ecc_i\[31\] I *L 0.000e+00 *S 0.000e+00 0.000e+00 
rf_rdata_b_ecc_i\[30\] I *L 0.000e+00 *S 0.000e+00 0.000e+00 
rf_rdata_b_ecc_i\[29\] I *L 0.000e+00 *S 0.000e+00 0.000e+00 
rf_rdata_b_ecc_i\[28\] I *L 0.000e+00 *S 0.000e+00 0.000e+00 
rf_rdata_b_ecc_i\[27\] I *L 0.000e+00 *S 0.000e+00 0.000e+00 
rf_rdata_b_ecc_i\[26\] I *L 0.000e+00 *S 0.000e+00 0.000e+00 
rf_rdata_b_ecc_i\[25\] I *L 0.000e+00 *S 0.000e+00 0.000e+00 
rf_rdata_b_ecc_i\[24\] I *L 0.000e+00 *S 0.000e+00 0.000e+00 
rf_rdata_b_ecc_i\[23\] I *L 0.000e+00 *S 0.000e+00 0.000e+00 
rf_rdata_b_ecc_i\[22\] I *L 0.000e+00 *S 0.000e+00 0.000e+00 
rf_rdata_b_ecc_i\[21\] I *L 0.000e+00 *S 0.000e+00 0.000e+00 
rf_rdata_b_ecc_i\[20\] I *L 0.000e+00 *S 0.000e+00 0.000e+00 
rf_rdata_b_ecc_i\[19\] I *L 0.000e+00 *S 0.000e+00 0.000e+00 
rf_rdata_b_ecc_i\[18\] I *L 0.000e+00 *S 0.000e+00 0.000e+00 
rf_rdata_b_ecc_i\[17\] I *L 0.000e+00 *S 0.000e+00 0.000e+00 
rf_rdata_b_ecc_i\[16\] I *L 0.000e+00 *S 0.000e+00 0.000e+00 
rf_rdata_b_ecc_i\[15\] I *L 0.000e+00 *S 0.000e+00 0.000e+00 
rf_rdata_b_ecc_i\[14\] I *L 0.000e+00 *S 0.000e+00 0.000e+00 
rf_rdata_b_ecc_i\[13\] I *L 0.000e+00 *S 0.000e+00 0.000e+00 
rf_rdata_b_ecc_i\[12\] I *L 0.000e+00 *S 0.000e+00 0.000e+00 
rf_rdata_b_ecc_i\[11\] I *L 0.000e+00 *S 0.000e+00 0.000e+00 
rf_rdata_b_ecc_i\[10\] I *L 0.000e+00 *S 0.000e+00 0.000e+00 
rf_rdata_b_ecc_i\[9\] I *L 0.000e+00 *S 0.000e+00 0.000e+00 
rf_rdata_b_ecc_i\[8\] I *L 0.000e+00 *S 0.000e+00 0.000e+00 
rf_rdata_b_ecc_i\[7\] I *L 0.000e+00 *S 0.000e+00 0.000e+00 
rf_rdata_b_ecc_i\[6\] I *L 0.000e+00 *S 0.000e+00 0.000e+00 
rf_rdata_b_ecc_i\[5\] I *L 0.000e+00 *S 0.000e+00 0.000e+00 
rf_rdata_b_ecc_i\[4\] I *L 0.000e+00 *S 0.000e+00 0.000e+00 
rf_rdata_b_ecc_i\[3\] I *L 0.000e+00 *S 0.000e+00 0.000e+00 
rf_rdata_b_ecc_i\[2\] I *L 0.000e+00 *S 0.000e+00 0.000e+00 
rf_rdata_b_ecc_i\[1\] I *L 0.000e+00 *S 0.000e+00 0.000e+00 
rf_rdata_b_ecc_i\[0\] I *L 0.000e+00 *S 0.000e+00 0.000e+00 
ic_tag_req_o\[1\] O *L 0.000e+00 *S 1.526e-03 1.159e-03 
ic_tag_req_o\[0\] O *L 0.000e+00 *S 1.526e-03 1.159e-03 
ic_tag_write_o O *L 0.000e+00 *S 1.526e-03 1.159e-03 
ic_tag_addr_o\[7\] O *L 0.000e+00 *S 1.526e-03 1.159e-03 
ic_tag_addr_o\[6\] O *L 0.000e+00 *S 1.526e-03 1.159e-03 
ic_tag_addr_o\[5\] O *L 0.000e+00 *S 1.526e-03 1.159e-03 
ic_tag_addr_o\[4\] O *L 0.000e+00 *S 1.526e-03 1.159e-03 
ic_tag_addr_o\[3\] O *L 0.000e+00 *S 1.526e-03 1.159e-03 
ic_tag_addr_o\[2\] O *L 0.000e+00 *S 1.526e-03 1.159e-03 
ic_tag_addr_o\[1\] O *L 0.000e+00 *S 1.526e-03 1.159e-03 
ic_tag_addr_o\[0\] O *L 0.000e+00 *S 1.526e-03 1.159e-03 
ic_tag_wdata_o\[21\] O *L 0.000e+00 *S 1.526e-03 1.159e-03 
ic_tag_wdata_o\[20\] O *L 0.000e+00 *S 1.526e-03 1.159e-03 
ic_tag_wdata_o\[19\] O *L 0.000e+00 *S 1.526e-03 1.159e-03 
ic_tag_wdata_o\[18\] O *L 0.000e+00 *S 1.526e-03 1.159e-03 
ic_tag_wdata_o\[17\] O *L 0.000e+00 *S 1.526e-03 1.159e-03 
ic_tag_wdata_o\[16\] O *L 0.000e+00 *S 1.526e-03 1.159e-03 
ic_tag_wdata_o\[15\] O *L 0.000e+00 *S 1.526e-03 1.159e-03 
ic_tag_wdata_o\[14\] O *L 0.000e+00 *S 1.526e-03 1.159e-03 
ic_tag_wdata_o\[13\] O *L 0.000e+00 *S 1.526e-03 1.159e-03 
ic_tag_wdata_o\[12\] O *L 0.000e+00 *S 1.526e-03 1.159e-03 
ic_tag_wdata_o\[11\] O *L 0.000e+00 *S 1.526e-03 1.159e-03 
ic_tag_wdata_o\[10\] O *L 0.000e+00 *S 1.526e-03 1.159e-03 
ic_tag_wdata_o\[9\] O *L 0.000e+00 *S 1.526e-03 1.159e-03 
ic_tag_wdata_o\[8\] O *L 0.000e+00 *S 1.526e-03 1.159e-03 
ic_tag_wdata_o\[7\] O *L 0.000e+00 *S 1.526e-03 1.159e-03 
ic_tag_wdata_o\[6\] O *L 0.000e+00 *S 1.526e-03 1.159e-03 
ic_tag_wdata_o\[5\] O *L 0.000e+00 *S 1.526e-03 1.159e-03 
ic_tag_wdata_o\[4\] O *L 0.000e+00 *S 1.526e-03 1.159e-03 
ic_tag_wdata_o\[3\] O *L 0.000e+00 *S 1.526e-03 1.159e-03 
ic_tag_wdata_o\[2\] O *L 0.000e+00 *S 1.526e-03 1.159e-03 
ic_tag_wdata_o\[1\] O *L 0.000e+00 *S 1.526e-03 1.159e-03 
ic_tag_wdata_o\[0\] O *L 0.000e+00 *S 1.526e-03 1.159e-03 
ic_tag_rdata_i\[43\] I *L 0.000e+00 *S 0.000e+00 0.000e+00 
ic_tag_rdata_i\[42\] I *L 0.000e+00 *S 0.000e+00 0.000e+00 
ic_tag_rdata_i\[41\] I *L 0.000e+00 *S 0.000e+00 0.000e+00 
ic_tag_rdata_i\[40\] I *L 0.000e+00 *S 0.000e+00 0.000e+00 
ic_tag_rdata_i\[39\] I *L 0.000e+00 *S 0.000e+00 0.000e+00 
ic_tag_rdata_i\[38\] I *L 0.000e+00 *S 0.000e+00 0.000e+00 
ic_tag_rdata_i\[37\] I *L 0.000e+00 *S 0.000e+00 0.000e+00 
ic_tag_rdata_i\[36\] I *L 0.000e+00 *S 0.000e+00 0.000e+00 
ic_tag_rdata_i\[35\] I *L 0.000e+00 *S 0.000e+00 0.000e+00 
ic_tag_rdata_i\[34\] I *L 0.000e+00 *S 0.000e+00 0.000e+00 
ic_tag_rdata_i\[33\] I *L 0.000e+00 *S 0.000e+00 0.000e+00 
ic_tag_rdata_i\[32\] I *L 0.000e+00 *S 0.000e+00 0.000e+00 
ic_tag_rdata_i\[31\] I *L 0.000e+00 *S 0.000e+00 0.000e+00 
ic_tag_rdata_i\[30\] I *L 0.000e+00 *S 0.000e+00 0.000e+00 
ic_tag_rdata_i\[29\] I *L 0.000e+00 *S 0.000e+00 0.000e+00 
ic_tag_rdata_i\[28\] I *L 0.000e+00 *S 0.000e+00 0.000e+00 
ic_tag_rdata_i\[27\] I *L 0.000e+00 *S 0.000e+00 0.000e+00 
ic_tag_rdata_i\[26\] I *L 0.000e+00 *S 0.000e+00 0.000e+00 
ic_tag_rdata_i\[25\] I *L 0.000e+00 *S 0.000e+00 0.000e+00 
ic_tag_rdata_i\[24\] I *L 0.000e+00 *S 0.000e+00 0.000e+00 
ic_tag_rdata_i\[23\] I *L 0.000e+00 *S 0.000e+00 0.000e+00 
ic_tag_rdata_i\[22\] I *L 0.000e+00 *S 0.000e+00 0.000e+00 
ic_tag_rdata_i\[21\] I *L 0.000e+00 *S 0.000e+00 0.000e+00 
ic_tag_rdata_i\[20\] I *L 0.000e+00 *S 0.000e+00 0.000e+00 
ic_tag_rdata_i\[19\] I *L 0.000e+00 *S 0.000e+00 0.000e+00 
ic_tag_rdata_i\[18\] I *L 0.000e+00 *S 0.000e+00 0.000e+00 
ic_tag_rdata_i\[17\] I *L 0.000e+00 *S 0.000e+00 0.000e+00 
ic_tag_rdata_i\[16\] I *L 0.000e+00 *S 0.000e+00 0.000e+00 
ic_tag_rdata_i\[15\] I *L 0.000e+00 *S 0.000e+00 0.000e+00 
ic_tag_rdata_i\[14\] I *L 0.000e+00 *S 0.000e+00 0.000e+00 
ic_tag_rdata_i\[13\] I *L 0.000e+00 *S 0.000e+00 0.000e+00 
ic_tag_rdata_i\[12\] I *L 0.000e+00 *S 0.000e+00 0.000e+00 
ic_tag_rdata_i\[11\] I *L 0.000e+00 *S 0.000e+00 0.000e+00 
ic_tag_rdata_i\[10\] I *L 0.000e+00 *S 0.000e+00 0.000e+00 
ic_tag_rdata_i\[9\] I *L 0.000e+00 *S 0.000e+00 0.000e+00 
ic_tag_rdata_i\[8\] I *L 0.000e+00 *S 0.000e+00 0.000e+00 
ic_tag_rdata_i\[7\] I *L 0.000e+00 *S 0.000e+00 0.000e+00 
ic_tag_rdata_i\[6\] I *L 0.000e+00 *S 0.000e+00 0.000e+00 
ic_tag_rdata_i\[5\] I *L 0.000e+00 *S 0.000e+00 0.000e+00 
ic_tag_rdata_i\[4\] I *L 0.000e+00 *S 0.000e+00 0.000e+00 
ic_tag_rdata_i\[3\] I *L 0.000e+00 *S 0.000e+00 0.000e+00 
ic_tag_rdata_i\[2\] I *L 0.000e+00 *S 0.000e+00 0.000e+00 
ic_tag_rdata_i\[1\] I *L 0.000e+00 *S 0.000e+00 0.000e+00 
ic_tag_rdata_i\[0\] I *L 0.000e+00 *S 0.000e+00 0.000e+00 
ic_data_req_o\[1\] O *L 0.000e+00 *S 1.526e-03 1.159e-03 
ic_data_req_o\[0\] O *L 0.000e+00 *S 1.526e-03 1.159e-03 
ic_data_write_o O *L 0.000e+00 *S 1.526e-03 1.159e-03 
ic_data_addr_o\[7\] O *L 0.000e+00 *S 1.526e-03 1.159e-03 
ic_data_addr_o\[6\] O *L 0.000e+00 *S 1.526e-03 1.159e-03 
ic_data_addr_o\[5\] O *L 0.000e+00 *S 1.526e-03 1.159e-03 
ic_data_addr_o\[4\] O *L 0.000e+00 *S 1.526e-03 1.159e-03 
ic_data_addr_o\[3\] O *L 0.000e+00 *S 1.526e-03 1.159e-03 
ic_data_addr_o\[2\] O *L 0.000e+00 *S 1.526e-03 1.159e-03 
ic_data_addr_o\[1\] O *L 0.000e+00 *S 1.526e-03 1.159e-03 
ic_data_addr_o\[0\] O *L 0.000e+00 *S 1.526e-03 1.159e-03 
ic_data_wdata_o\[63\] O *L 0.000e+00 *S 1.526e-03 1.159e-03 
ic_data_wdata_o\[62\] O *L 0.000e+00 *S 1.526e-03 1.159e-03 
ic_data_wdata_o\[61\] O *L 0.000e+00 *S 1.526e-03 1.159e-03 
ic_data_wdata_o\[60\] O *L 0.000e+00 *S 1.526e-03 1.159e-03 
ic_data_wdata_o\[59\] O *L 0.000e+00 *S 1.526e-03 1.159e-03 
ic_data_wdata_o\[58\] O *L 0.000e+00 *S 1.526e-03 1.159e-03 
ic_data_wdata_o\[57\] O *L 0.000e+00 *S 1.526e-03 1.159e-03 
ic_data_wdata_o\[56\] O *L 0.000e+00 *S 1.526e-03 1.159e-03 
ic_data_wdata_o\[55\] O *L 0.000e+00 *S 1.526e-03 1.159e-03 
ic_data_wdata_o\[54\] O *L 0.000e+00 *S 1.526e-03 1.159e-03 
ic_data_wdata_o\[53\] O *L 0.000e+00 *S 1.526e-03 1.159e-03 
ic_data_wdata_o\[52\] O *L 0.000e+00 *S 1.526e-03 1.159e-03 
ic_data_wdata_o\[51\] O *L 0.000e+00 *S 1.526e-03 1.159e-03 
ic_data_wdata_o\[50\] O *L 0.000e+00 *S 1.526e-03 1.159e-03 
ic_data_wdata_o\[49\] O *L 0.000e+00 *S 1.526e-03 1.159e-03 
ic_data_wdata_o\[48\] O *L 0.000e+00 *S 1.526e-03 1.159e-03 
ic_data_wdata_o\[47\] O *L 0.000e+00 *S 1.526e-03 1.159e-03 
ic_data_wdata_o\[46\] O *L 0.000e+00 *S 1.526e-03 1.159e-03 
ic_data_wdata_o\[45\] O *L 0.000e+00 *S 1.526e-03 1.159e-03 
ic_data_wdata_o\[44\] O *L 0.000e+00 *S 1.526e-03 1.159e-03 
ic_data_wdata_o\[43\] O *L 0.000e+00 *S 1.526e-03 1.159e-03 
ic_data_wdata_o\[42\] O *L 0.000e+00 *S 1.526e-03 1.159e-03 
ic_data_wdata_o\[41\] O *L 0.000e+00 *S 1.526e-03 1.159e-03 
ic_data_wdata_o\[40\] O *L 0.000e+00 *S 1.526e-03 1.159e-03 
ic_data_wdata_o\[39\] O *L 0.000e+00 *S 1.526e-03 1.159e-03 
ic_data_wdata_o\[38\] O *L 0.000e+00 *S 1.526e-03 1.159e-03 
ic_data_wdata_o\[37\] O *L 0.000e+00 *S 1.526e-03 1.159e-03 
ic_data_wdata_o\[36\] O *L 0.000e+00 *S 1.526e-03 1.159e-03 
ic_data_wdata_o\[35\] O *L 0.000e+00 *S 1.526e-03 1.159e-03 
ic_data_wdata_o\[34\] O *L 0.000e+00 *S 1.526e-03 1.159e-03 
ic_data_wdata_o\[33\] O *L 0.000e+00 *S 1.526e-03 1.159e-03 
ic_data_wdata_o\[32\] O *L 0.000e+00 *S 1.526e-03 1.159e-03 
ic_data_wdata_o\[31\] O *L 0.000e+00 *S 1.526e-03 1.159e-03 
ic_data_wdata_o\[30\] O *L 0.000e+00 *S 1.526e-03 1.159e-03 
ic_data_wdata_o\[29\] O *L 0.000e+00 *S 1.526e-03 1.159e-03 
ic_data_wdata_o\[28\] O *L 0.000e+00 *S 1.526e-03 1.159e-03 
ic_data_wdata_o\[27\] O *L 0.000e+00 *S 1.526e-03 1.159e-03 
ic_data_wdata_o\[26\] O *L 0.000e+00 *S 1.526e-03 1.159e-03 
ic_data_wdata_o\[25\] O *L 0.000e+00 *S 1.526e-03 1.159e-03 
ic_data_wdata_o\[24\] O *L 0.000e+00 *S 1.526e-03 1.159e-03 
ic_data_wdata_o\[23\] O *L 0.000e+00 *S 1.526e-03 1.159e-03 
ic_data_wdata_o\[22\] O *L 0.000e+00 *S 1.526e-03 1.159e-03 
ic_data_wdata_o\[21\] O *L 0.000e+00 *S 1.526e-03 1.159e-03 
ic_data_wdata_o\[20\] O *L 0.000e+00 *S 1.526e-03 1.159e-03 
ic_data_wdata_o\[19\] O *L 0.000e+00 *S 1.526e-03 1.159e-03 
ic_data_wdata_o\[18\] O *L 0.000e+00 *S 1.526e-03 1.159e-03 
ic_data_wdata_o\[17\] O *L 0.000e+00 *S 1.526e-03 1.159e-03 
ic_data_wdata_o\[16\] O *L 0.000e+00 *S 1.526e-03 1.159e-03 
ic_data_wdata_o\[15\] O *L 0.000e+00 *S 1.526e-03 1.159e-03 
ic_data_wdata_o\[14\] O *L 0.000e+00 *S 1.526e-03 1.159e-03 
ic_data_wdata_o\[13\] O *L 0.000e+00 *S 1.526e-03 1.159e-03 
ic_data_wdata_o\[12\] O *L 0.000e+00 *S 1.526e-03 1.159e-03 
ic_data_wdata_o\[11\] O *L 0.000e+00 *S 1.526e-03 1.159e-03 
ic_data_wdata_o\[10\] O *L 0.000e+00 *S 1.526e-03 1.159e-03 
ic_data_wdata_o\[9\] O *L 0.000e+00 *S 1.526e-03 1.159e-03 
ic_data_wdata_o\[8\] O *L 0.000e+00 *S 1.526e-03 1.159e-03 
ic_data_wdata_o\[7\] O *L 0.000e+00 *S 1.526e-03 1.159e-03 
ic_data_wdata_o\[6\] O *L 0.000e+00 *S 1.526e-03 1.159e-03 
ic_data_wdata_o\[5\] O *L 0.000e+00 *S 1.526e-03 1.159e-03 
ic_data_wdata_o\[4\] O *L 0.000e+00 *S 1.526e-03 1.159e-03 
ic_data_wdata_o\[3\] O *L 0.000e+00 *S 1.526e-03 1.159e-03 
ic_data_wdata_o\[2\] O *L 0.000e+00 *S 1.526e-03 1.159e-03 
ic_data_wdata_o\[1\] O *L 0.000e+00 *S 1.526e-03 1.159e-03 
ic_data_wdata_o\[0\] O *L 0.000e+00 *S 1.526e-03 1.159e-03 